Test_Network/condensed/network_5/Generators.txt
New Generator.GEN11 Bus1=155.1 kV=0.213 kW=0 PF=1
New Generator.GEN12 Bus1=187.1 kV=0.213 kW=0 PF=1
New Generator.GEN13 Bus1=199.3 kV=0.213 kW=0 PF=1
New Generator.GEN14 Bus1=1130.3 kV=0.213 kW=0 PF=1
New Generator.GEN21 Bus1=245.1 kV=0.213 kW=0 PF=1
New Generator.GEN22 Bus1=256.3 kV=0.213 kW=0 PF=1
New Generator.GEN23 Bus1=257.3 kV=0.213 kW=0 PF=1
New Generator.GEN24 Bus1=273.1 kV=0.213 kW=0 PF=1
New Generator.GEN25 Bus1=274.1 kV=0.213 kW=0 PF=1
New Generator.GEN26 Bus1=2102.2 kV=0.213 kW=0 PF=1
New Generator.GEN27 Bus1=2107.3 kV=0.213 kW=0 PF=1
New Generator.GEN28 Bus1=2120.3 kV=0.213 kW=0 PF=1
New Generator.GEN29 Bus1=2138.3 kV=0.213 kW=0 PF=1
New Generator.GEN210 Bus1=2142.3 kV=0.213 kW=0 PF=1
New Generator.GEN211 Bus1=2145.2 kV=0.213 kW=0 PF=1
New Generator.GEN212 Bus1=2149.3 kV=0.213 kW=0 PF=1
New Generator.GEN213 Bus1=2153.2 kV=0.213 kW=0 PF=1
New Generator.GEN214 Bus1=2157.2 kV=0.213 kW=0 PF=1
New Generator.GEN215 Bus1=2179.3 kV=0.213 kW=0 PF=1
New Generator.GEN216 Bus1=2184.1 kV=0.213 kW=0 PF=1
New Generator.GEN217 Bus1=2188.2 kV=0.213 kW=0 PF=1
New Generator.GEN218 Bus1=2193.3 kV=0.213 kW=0 PF=1
New Generator.GEN31 Bus1=369.2 kV=0.213 kW=0 PF=1
New Generator.GEN32 Bus1=375.1 kV=0.213 kW=0 PF=1
New Generator.GEN33 Bus1=387.2 kV=0.213 kW=0 PF=1
New Generator.GEN34 Bus1=391.1 kV=0.213 kW=0 PF=1
New Generator.GEN35 Bus1=3119.1 kV=0.213 kW=0 PF=1
New Generator.GEN36 Bus1=3151.1 kV=0.213 kW=0 PF=1
New Generator.GEN37 Bus1=3194.1 kV=0.213 kW=0 PF=1
New Generator.GEN38 Bus1=3211.3 kV=0.213 kW=0 PF=1
New Generator.GEN39 Bus1=3226.2 kV=0.213 kW=0 PF=1
New Generator.GEN310 Bus1=3251.3 kV=0.213 kW=0 PF=1
New Generator.GEN311 Bus1=3265.3 kV=0.213 kW=0 PF=1
New Generator.GEN312 Bus1=3273.2 kV=0.213 kW=0 PF=1
New Generator.GEN313 Bus1=3319.2 kV=0.213 kW=0 PF=1
New Generator.GEN314 Bus1=3326.1 kV=0.213 kW=0 PF=1
New Generator.GEN315 Bus1=3356.2 kV=0.213 kW=0 PF=1
New Generator.GEN316 Bus1=3361.1 kV=0.213 kW=0 PF=1
New Generator.GEN317 Bus1=3370.2 kV=0.213 kW=0 PF=1
New Generator.GEN318 Bus1=3390.3 kV=0.213 kW=0 PF=1
New Generator.GEN319 Bus1=3395.3 kV=0.213 kW=0 PF=1
New Generator.GEN320 Bus1=3410.3 kV=0.213 kW=0 PF=1
New Generator.GEN321 Bus1=3434.2 kV=0.213 kW=0 PF=1
New Generator.GEN322 Bus1=3438.3 kV=0.213 kW=0 PF=1
New Generator.GEN323 Bus1=3455.1 kV=0.213 kW=0 PF=1
New Generator.GEN324 Bus1=3502.3 kV=0.213 kW=0 PF=1
New Generator.GEN325 Bus1=3511.2 kV=0.213 kW=0 PF=1
New Generator.GEN326 Bus1=3531.2 kV=0.213 kW=0 PF=1
New Generator.GEN327 Bus1=3553.1 kV=0.213 kW=0 PF=1
New Generator.GEN328 Bus1=3555.3 kV=0.213 kW=0 PF=1
New Generator.GEN329 Bus1=3571.3 kV=0.213 kW=0 PF=1
New Generator.GEN330 Bus1=3579.3 kV=0.213 kW=0 PF=1
New Generator.GEN331 Bus1=3581.1 kV=0.213 kW=0 PF=1
New Generator.GEN332 Bus1=3622.3 kV=0.213 kW=0 PF=1
New Generator.GEN333 Bus1=3692.1 kV=0.213 kW=0 PF=1
New Generator.GEN334 Bus1=3694.2 kV=0.213 kW=0 PF=1
New Generator.GEN335 Bus1=3722.2 kV=0.213 kW=0 PF=1
New Generator.GEN336 Bus1=3749.3 kV=0.213 kW=0 PF=1
New Generator.GEN337 Bus1=3773.2 kV=0.213 kW=0 PF=1
New Generator.GEN338 Bus1=3778.1 kV=0.213 kW=0 PF=1
New Generator.GEN339 Bus1=3780.3 kV=0.213 kW=0 PF=1
New Generator.GEN340 Bus1=3805.3 kV=0.213 kW=0 PF=1
New Generator.GEN341 Bus1=3809.2 kV=0.213 kW=0 PF=1
New Generator.GEN342 Bus1=3842.2 kV=0.213 kW=0 PF=1
New Generator.GEN343 Bus1=3871.3 kV=0.213 kW=0 PF=1
New Generator.GEN344 Bus1=3922.1 kV=0.213 kW=0 PF=1
New Generator.GEN345 Bus1=3943.3 kV=0.213 kW=0 PF=1
New Generator.GEN346 Bus1=3957.1 kV=0.213 kW=0 PF=1
New Generator.GEN347 Bus1=3967.1 kV=0.213 kW=0 PF=1
New Generator.GEN348 Bus1=3977.3 kV=0.213 kW=0 PF=1
New Generator.GEN349 Bus1=3980.2 kV=0.213 kW=0 PF=1
New Generator.GEN350 Bus1=31001.3 kV=0.213 kW=0 PF=1
New Generator.GEN351 Bus1=31011.2 kV=0.213 kW=0 PF=1
New Generator.GEN352 Bus1=31030.1 kV=0.213 kW=0 PF=1
New Generator.GEN353 Bus1=31047.2 kV=0.213 kW=0 PF=1
New Generator.GEN354 Bus1=31064.3 kV=0.213 kW=0 PF=1
New Generator.GEN355 Bus1=31076.2 kV=0.213 kW=0 PF=1
New Generator.GEN356 Bus1=31085.1 kV=0.213 kW=0 PF=1
New Generator.GEN357 Bus1=31089.2 kV=0.213 kW=0 PF=1
New Generator.GEN358 Bus1=31092.1 kV=0.213 kW=0 PF=1
New Generator.GEN359 Bus1=31093.2 kV=0.213 kW=0 PF=1
New Generator.GEN360 Bus1=31115.1 kV=0.213 kW=0 PF=1
New Generator.GEN361 Bus1=31118.3 kV=0.213 kW=0 PF=1
New Generator.GEN362 Bus1=31146.3 kV=0.213 kW=0 PF=1
New Generator.GEN363 Bus1=31155.1 kV=0.213 kW=0 PF=1
New Generator.GEN364 Bus1=31157.1 kV=0.213 kW=0 PF=1
New Generator.GEN365 Bus1=31158.2 kV=0.213 kW=0 PF=1
New Generator.GEN366 Bus1=31167.1 kV=0.213 kW=0 PF=1
New Generator.GEN367 Bus1=31172.2 kV=0.213 kW=0 PF=1
New Generator.GEN368 Bus1=31181.3 kV=0.213 kW=0 PF=1
New Generator.GEN369 Bus1=31183.2 kV=0.213 kW=0 PF=1
New Generator.GEN370 Bus1=31195.2 kV=0.213 kW=0 PF=1
New Generator.GEN371 Bus1=31206.1 kV=0.213 kW=0 PF=1
New Generator.GEN372 Bus1=31215.2 kV=0.213 kW=0 PF=1
New Generator.GEN373 Bus1=31216.1 kV=0.213 kW=0 PF=1
New Generator.GEN374 Bus1=31234.2 kV=0.213 kW=0 PF=1
New Generator.GEN375 Bus1=31248.1 kV=0.213 kW=0 PF=1
New Generator.GEN376 Bus1=31250.1 kV=0.213 kW=0 PF=1
New Generator.GEN377 Bus1=31269.1 kV=0.213 kW=0 PF=1
New Generator.GEN378 Bus1=31282.1 kV=0.213 kW=0 PF=1
New Generator.GEN379 Bus1=31302.3 kV=0.213 kW=0 PF=1
New Generator.GEN380 Bus1=31310.2 kV=0.213 kW=0 PF=1
New Generator.GEN381 Bus1=31346.1 kV=0.213 kW=0 PF=1
New Generator.GEN382 Bus1=31357.2 kV=0.213 kW=0 PF=1
New Generator.GEN383 Bus1=31374.3 kV=0.213 kW=0 PF=1
New Generator.GEN384 Bus1=31389.2 kV=0.213 kW=0 PF=1
New Generator.GEN385 Bus1=31390.1 kV=0.213 kW=0 PF=1
New Generator.GEN386 Bus1=31392.2 kV=0.213 kW=0 PF=1
New Generator.GEN387 Bus1=31409.3 kV=0.213 kW=0 PF=1
New Generator.GEN388 Bus1=31420.1 kV=0.213 kW=0 PF=1
New Generator.GEN389 Bus1=31424.1 kV=0.213 kW=0 PF=1
New Generator.GEN390 Bus1=31441.3 kV=0.213 kW=0 PF=1
New Generator.GEN391 Bus1=31446.3 kV=0.213 kW=0 PF=1
New Generator.GEN392 Bus1=31464.3 kV=0.213 kW=0 PF=1
New Generator.GEN393 Bus1=31488.2 kV=0.213 kW=0 PF=1
New Generator.GEN394 Bus1=31505.3 kV=0.213 kW=0 PF=1
New Generator.GEN395 Bus1=31513.1 kV=0.213 kW=0 PF=1
New Generator.GEN396 Bus1=31518.1 kV=0.213 kW=0 PF=1
New Generator.GEN397 Bus1=31547.1 kV=0.213 kW=0 PF=1
New Generator.GEN398 Bus1=31563.3 kV=0.213 kW=0 PF=1
New Generator.GEN399 Bus1=31567.2 kV=0.213 kW=0 PF=1
New Generator.GEN3100 Bus1=31588.1 kV=0.213 kW=0 PF=1
New Generator.GEN3101 Bus1=31594.3 kV=0.213 kW=0 PF=1
New Generator.GEN3102 Bus1=31598.2 kV=0.213 kW=0 PF=1
New Generator.GEN3103 Bus1=31619.1 kV=0.213 kW=0 PF=1
New Generator.GEN3104 Bus1=31627.1 kV=0.213 kW=0 PF=1
New Generator.GEN3105 Bus1=31631.1 kV=0.213 kW=0 PF=1
New Generator.GEN3106 Bus1=31666.3 kV=0.213 kW=0 PF=1
New Generator.GEN3107 Bus1=31684.3 kV=0.213 kW=0 PF=1
New Generator.GEN3108 Bus1=31711.1 kV=0.213 kW=0 PF=1
New Generator.GEN3109 Bus1=31733.3 kV=0.213 kW=0 PF=1
New Generator.GEN3110 Bus1=31743.1 kV=0.213 kW=0 PF=1
New Generator.GEN3111 Bus1=31744.1 kV=0.213 kW=0 PF=1
New Generator.GEN3112 Bus1=31762.1 kV=0.213 kW=0 PF=1
New Generator.GEN3113 Bus1=31763.2 kV=0.213 kW=0 PF=1
New Generator.GEN3114 Bus1=31764.3 kV=0.213 kW=0 PF=1
New Generator.GEN3115 Bus1=31800.3 kV=0.213 kW=0 PF=1
New Generator.GEN3116 Bus1=31819.1 kV=0.213 kW=0 PF=1
New Generator.GEN3117 Bus1=31885.1 kV=0.213 kW=0 PF=1
New Generator.GEN3118 Bus1=31911.3 kV=0.213 kW=0 PF=1
New Generator.GEN3119 Bus1=31993.2 kV=0.213 kW=0 PF=1
New Generator.GEN3120 Bus1=32010.3 kV=0.213 kW=0 PF=1
New Generator.GEN3121 Bus1=32023.2 kV=0.213 kW=0 PF=1
New Generator.GEN3122 Bus1=32043.1 kV=0.213 kW=0 PF=1
New Generator.GEN3123 Bus1=32059.3 kV=0.213 kW=0 PF=1
New Generator.GEN3124 Bus1=32064.3 kV=0.213 kW=0 PF=1
New Generator.GEN3125 Bus1=32092.2 kV=0.213 kW=0 PF=1
New Generator.GEN3126 Bus1=32176.3 kV=0.213 kW=0 PF=1
New Generator.GEN3127 Bus1=32199.1 kV=0.213 kW=0 PF=1
New Generator.GEN3128 Bus1=32203.3 kV=0.213 kW=0 PF=1
New Generator.GEN3129 Bus1=32227.2 kV=0.213 kW=0 PF=1
New Generator.GEN3130 Bus1=32230.3 kV=0.213 kW=0 PF=1
New Generator.GEN3131 Bus1=32232.1 kV=0.213 kW=0 PF=1
New Generator.GEN3132 Bus1=32237.2 kV=0.213 kW=0 PF=1
New Generator.GEN3133 Bus1=32249.2 kV=0.213 kW=0 PF=1
New Generator.GEN3134 Bus1=32313.2 kV=0.213 kW=0 PF=1
New Generator.GEN3135 Bus1=32349.2 kV=0.213 kW=0 PF=1
New Generator.GEN3136 Bus1=32402.2 kV=0.213 kW=0 PF=1
New Generator.GEN3137 Bus1=32435.3 kV=0.213 kW=0 PF=1
New Generator.GEN3138 Bus1=32466.1 kV=0.213 kW=0 PF=1
New Generator.GEN3139 Bus1=32489.2 kV=0.213 kW=0 PF=1
New Generator.GEN3140 Bus1=32501.3 kV=0.213 kW=0 PF=1
New Generator.GEN3141 Bus1=32521.1 kV=0.213 kW=0 PF=1
New Generator.GEN3142 Bus1=32548.2 kV=0.213 kW=0 PF=1
New Generator.GEN3143 Bus1=32555.3 kV=0.213 kW=0 PF=1
New Generator.GEN3144 Bus1=32587.1 kV=0.213 kW=0 PF=1
New Generator.GEN3145 Bus1=32621.2 kV=0.213 kW=0 PF=1
New Generator.GEN3146 Bus1=32643.3 kV=0.213 kW=0 PF=1
New Generator.GEN3147 Bus1=32647.3 kV=0.213 kW=0 PF=1
New Generator.GEN3148 Bus1=32721.1 kV=0.213 kW=0 PF=1
New Generator.GEN3149 Bus1=32752.3 kV=0.213 kW=0 PF=1
New Generator.GEN3150 Bus1=32816.2 kV=0.213 kW=0 PF=1
New Generator.GEN3151 Bus1=32826.1 kV=0.213 kW=0 PF=1
New Generator.GEN3152 Bus1=32876.1 kV=0.213 kW=0 PF=1
New Generator.GEN3153 Bus1=32884.2 kV=0.213 kW=0 PF=1
New Generator.GEN3154 Bus1=32888.3 kV=0.213 kW=0 PF=1
New Generator.GEN3155 Bus1=32900.3 kV=0.213 kW=0 PF=1
New Generator.GEN3156 Bus1=32902.1 kV=0.213 kW=0 PF=1
New Generator.GEN41 Bus1=468.1 kV=0.213 kW=0 PF=1
New Generator.GEN42 Bus1=476.1 kV=0.213 kW=0 PF=1
New Generator.GEN43 Bus1=4142.2 kV=0.213 kW=0 PF=1
New Generator.GEN44 Bus1=4144.2 kV=0.213 kW=0 PF=1
New Generator.GEN45 Bus1=4150.3 kV=0.213 kW=0 PF=1
New Generator.GEN46 Bus1=4174.2 kV=0.213 kW=0 PF=1
New Generator.GEN47 Bus1=4195.3 kV=0.213 kW=0 PF=1
New Generator.GEN48 Bus1=4199.1 kV=0.213 kW=0 PF=1
New Generator.GEN49 Bus1=4204.3 kV=0.213 kW=0 PF=1
New Generator.GEN410 Bus1=4205.1 kV=0.213 kW=0 PF=1
New Generator.GEN411 Bus1=4235.3 kV=0.213 kW=0 PF=1
New Generator.GEN412 Bus1=4248.2 kV=0.213 kW=0 PF=1
New Generator.GEN413 Bus1=4255.1 kV=0.213 kW=0 PF=1
New Generator.GEN414 Bus1=4277.3 kV=0.213 kW=0 PF=1
New Generator.GEN415 Bus1=4326.1 kV=0.213 kW=0 PF=1
New Generator.GEN416 Bus1=4329.1 kV=0.213 kW=0 PF=1
New Generator.GEN417 Bus1=4374.2 kV=0.213 kW=0 PF=1
New Generator.GEN418 Bus1=4387.2 kV=0.213 kW=0 PF=1
New Generator.GEN419 Bus1=4394.3 kV=0.213 kW=0 PF=1
New Generator.GEN420 Bus1=4399.3 kV=0.213 kW=0 PF=1
New Generator.GEN421 Bus1=4400.3 kV=0.213 kW=0 PF=1
New Generator.GEN422 Bus1=4405.1 kV=0.213 kW=0 PF=1
New Generator.GEN423 Bus1=4415.1 kV=0.213 kW=0 PF=1
New Generator.GEN424 Bus1=4421.3 kV=0.213 kW=0 PF=1
New Generator.GEN425 Bus1=4425.2 kV=0.213 kW=0 PF=1
New Generator.GEN426 Bus1=4431.1 kV=0.213 kW=0 PF=1
New Generator.GEN427 Bus1=4433.2 kV=0.213 kW=0 PF=1
New Generator.GEN428 Bus1=4440.2 kV=0.213 kW=0 PF=1
New Generator.GEN429 Bus1=4445.1 kV=0.213 kW=0 PF=1
New Generator.GEN430 Bus1=4448.1 kV=0.213 kW=0 PF=1
New Generator.GEN51 Bus1=548.1 kV=0.213 kW=0 PF=1
New Generator.GEN52 Bus1=553.2 kV=0.213 kW=0 PF=1
New Generator.GEN53 Bus1=5251.3 kV=0.213 kW=0 PF=1
New Generator.GEN54 Bus1=5262.1 kV=0.213 kW=0 PF=1
New Generator.GEN55 Bus1=5273.1 kV=0.213 kW=0 PF=1
New Generator.GEN56 Bus1=5280.2 kV=0.213 kW=0 PF=1
New Generator.GEN57 Bus1=5284.1 kV=0.213 kW=0 PF=1
New Generator.GEN58 Bus1=5315.3 kV=0.213 kW=0 PF=1
New Generator.GEN59 Bus1=5325.3 kV=0.213 kW=0 PF=1
New Generator.GEN510 Bus1=5347.3 kV=0.213 kW=0 PF=1
New Generator.GEN511 Bus1=5360.2 kV=0.213 kW=0 PF=1
New Generator.GEN512 Bus1=5377.3 kV=0.213 kW=0 PF=1
New Generator.GEN513 Bus1=5394.3 kV=0.213 kW=0 PF=1
New Generator.GEN514 Bus1=5516.3 kV=0.213 kW=0 PF=1
New Generator.GEN515 Bus1=5538.1 kV=0.213 kW=0 PF=1
New Generator.GEN516 Bus1=5551.2 kV=0.213 kW=0 PF=1
New Generator.GEN517 Bus1=5597.1 kV=0.213 kW=0 PF=1
New Generator.GEN518 Bus1=5615.2 kV=0.213 kW=0 PF=1
New Generator.GEN519 Bus1=5621.1 kV=0.213 kW=0 PF=1
New Generator.GEN520 Bus1=5645.1 kV=0.213 kW=0 PF=1
New Generator.GEN521 Bus1=5663.2 kV=0.213 kW=0 PF=1
New Generator.GEN522 Bus1=5667.1 kV=0.213 kW=0 PF=1
New Generator.GEN523 Bus1=5676.2 kV=0.213 kW=0 PF=1
New Generator.GEN524 Bus1=5688.1 kV=0.213 kW=0 PF=1
New Generator.GEN525 Bus1=5707.3 kV=0.213 kW=0 PF=1
New Generator.GEN526 Bus1=5734.3 kV=0.213 kW=0 PF=1
New Generator.GEN527 Bus1=5741.2 kV=0.213 kW=0 PF=1
New Generator.GEN528 Bus1=5742.1 kV=0.213 kW=0 PF=1
New Generator.GEN529 Bus1=5743.2 kV=0.213 kW=0 PF=1
New Generator.GEN530 Bus1=5744.2 kV=0.213 kW=0 PF=1
New Generator.GEN531 Bus1=5747.1 kV=0.213 kW=0 PF=1
New Generator.GEN532 Bus1=5759.3 kV=0.213 kW=0 PF=1
New Generator.GEN533 Bus1=5776.1 kV=0.213 kW=0 PF=1
New Generator.GEN534 Bus1=5779.1 kV=0.213 kW=0 PF=1
New Generator.GEN535 Bus1=5780.1 kV=0.213 kW=0 PF=1
New Generator.GEN536 Bus1=5820.2 kV=0.213 kW=0 PF=1
New Generator.GEN537 Bus1=5918.1 kV=0.213 kW=0 PF=1
New Generator.GEN538 Bus1=5919.1 kV=0.213 kW=0 PF=1
New Generator.GEN539 Bus1=5940.3 kV=0.213 kW=0 PF=1
New Generator.GEN540 Bus1=5967.2 kV=0.213 kW=0 PF=1
New Generator.GEN541 Bus1=51019.1 kV=0.213 kW=0 PF=1
New Generator.GEN542 Bus1=51027.1 kV=0.213 kW=0 PF=1
New Generator.GEN543 Bus1=51066.2 kV=0.213 kW=0 PF=1
New Generator.GEN544 Bus1=51091.1 kV=0.213 kW=0 PF=1
New Generator.GEN545 Bus1=51098.2 kV=0.213 kW=0 PF=1
New Generator.GEN546 Bus1=51108.3 kV=0.213 kW=0 PF=1
New Generator.GEN547 Bus1=51132.2 kV=0.213 kW=0 PF=1
New Generator.GEN548 Bus1=51160.1 kV=0.213 kW=0 PF=1
New Generator.GEN549 Bus1=51173.2 kV=0.213 kW=0 PF=1
New Generator.GEN61 Bus1=659.1 kV=0.213 kW=0 PF=1
New Generator.GEN62 Bus1=687.1 kV=0.213 kW=0 PF=1
New Generator.GEN63 Bus1=6114.2 kV=0.213 kW=0 PF=1
New Generator.GEN64 Bus1=6128.3 kV=0.213 kW=0 PF=1
New Generator.GEN65 Bus1=6156.1 kV=0.213 kW=0 PF=1
New Generator.GEN66 Bus1=6189.2 kV=0.213 kW=0 PF=1
New Generator.GEN67 Bus1=6194.2 kV=0.213 kW=0 PF=1
New Generator.GEN68 Bus1=6213.1 kV=0.213 kW=0 PF=1
New Generator.GEN69 Bus1=6216.1 kV=0.213 kW=0 PF=1
New Generator.GEN610 Bus1=6233.2 kV=0.213 kW=0 PF=1
New Generator.GEN611 Bus1=6235.3 kV=0.213 kW=0 PF=1
New Generator.GEN612 Bus1=6263.1 kV=0.213 kW=0 PF=1
New Generator.GEN613 Bus1=6292.3 kV=0.213 kW=0 PF=1
New Generator.GEN614 Bus1=6321.1 kV=0.213 kW=0 PF=1
New Generator.GEN615 Bus1=6333.1 kV=0.213 kW=0 PF=1
New Generator.GEN616 Bus1=6343.1 kV=0.213 kW=0 PF=1
New Generator.GEN617 Bus1=6347.1 kV=0.213 kW=0 PF=1
New Generator.GEN71 Bus1=757.1 kV=0.213 kW=0 PF=1
New Generator.GEN72 Bus1=760.2 kV=0.213 kW=0 PF=1
New Generator.GEN73 Bus1=763.3 kV=0.213 kW=0 PF=1
New Generator.GEN74 Bus1=769.1 kV=0.213 kW=0 PF=1
New Generator.GEN75 Bus1=777.3 kV=0.213 kW=0 PF=1
New Generator.GEN76 Bus1=779.1 kV=0.213 kW=0 PF=1
New Generator.GEN77 Bus1=792.2 kV=0.213 kW=0 PF=1
New Generator.GEN78 Bus1=7103.3 kV=0.213 kW=0 PF=1
New Generator.GEN79 Bus1=7116.1 kV=0.213 kW=0 PF=1
New Generator.GEN710 Bus1=7129.1 kV=0.213 kW=0 PF=1
New Generator.GEN711 Bus1=7193.1 kV=0.213 kW=0 PF=1
New Generator.GEN712 Bus1=7214.2 kV=0.213 kW=0 PF=1
New Generator.GEN713 Bus1=7221.3 kV=0.213 kW=0 PF=1
New Generator.GEN714 Bus1=7230.2 kV=0.213 kW=0 PF=1
New Generator.GEN715 Bus1=7243.1 kV=0.213 kW=0 PF=1
New Generator.GEN716 Bus1=7251.1 kV=0.213 kW=0 PF=1
New Generator.GEN717 Bus1=7267.2 kV=0.213 kW=0 PF=1
New Generator.GEN718 Bus1=7275.3 kV=0.213 kW=0 PF=1
New Generator.GEN719 Bus1=7287.3 kV=0.213 kW=0 PF=1
New Generator.GEN720 Bus1=7297.1 kV=0.213 kW=0 PF=1
New Generator.GEN721 Bus1=7303.2 kV=0.213 kW=0 PF=1
New Generator.GEN722 Bus1=7309.3 kV=0.213 kW=0 PF=1
New Generator.GEN723 Bus1=7313.1 kV=0.213 kW=0 PF=1
New Generator.GEN81 Bus1=848.3 kV=0.213 kW=0 PF=1
New Generator.GEN82 Bus1=855.1 kV=0.213 kW=0 PF=1
New Generator.GEN83 Bus1=8100.1 kV=0.213 kW=0 PF=1
New Generator.GEN84 Bus1=8111.2 kV=0.213 kW=0 PF=1
New Generator.GEN85 Bus1=8120.3 kV=0.213 kW=0 PF=1
New Generator.GEN86 Bus1=8125.2 kV=0.213 kW=0 PF=1
New Generator.GEN87 Bus1=8148.1 kV=0.213 kW=0 PF=1
New Generator.GEN88 Bus1=8150.1 kV=0.213 kW=0 PF=1
New Generator.GEN89 Bus1=8161.1 kV=0.213 kW=0 PF=1
New Generator.GEN810 Bus1=8164.3 kV=0.213 kW=0 PF=1
New Generator.GEN811 Bus1=8171.1 kV=0.213 kW=0 PF=1
New Generator.GEN812 Bus1=8178.1 kV=0.213 kW=0 PF=1
New Generator.GEN813 Bus1=8190.1 kV=0.213 kW=0 PF=1
New Generator.GEN814 Bus1=8193.2 kV=0.213 kW=0 PF=1
New Generator.GEN815 Bus1=8201.2 kV=0.213 kW=0 PF=1
New Generator.GEN816 Bus1=8204.3 kV=0.213 kW=0 PF=1
New Generator.GEN817 Bus1=8232.3 kV=0.213 kW=0 PF=1
New Generator.GEN818 Bus1=8245.1 kV=0.213 kW=0 PF=1
New Generator.GEN819 Bus1=8261.3 kV=0.213 kW=0 PF=1
New Generator.GEN820 Bus1=8277.2 kV=0.213 kW=0 PF=1
New Generator.GEN821 Bus1=8278.1 kV=0.213 kW=0 PF=1
New Generator.GEN822 Bus1=8308.1 kV=0.213 kW=0 PF=1
New Generator.GEN823 Bus1=8315.2 kV=0.213 kW=0 PF=1
New Generator.GEN824 Bus1=8326.3 kV=0.213 kW=0 PF=1
New Generator.GEN825 Bus1=8349.1 kV=0.213 kW=0 PF=1
New Generator.GEN826 Bus1=8355.2 kV=0.213 kW=0 PF=1
New Generator.GEN827 Bus1=8361.3 kV=0.213 kW=0 PF=1
New Generator.GEN828 Bus1=8366.1 kV=0.213 kW=0 PF=1
New Generator.GEN829 Bus1=8383.2 kV=0.213 kW=0 PF=1
New Generator.GEN830 Bus1=8389.2 kV=0.213 kW=0 PF=1
New Generator.GEN831 Bus1=8411.1 kV=0.213 kW=0 PF=1
New Generator.GEN832 Bus1=8418.3 kV=0.213 kW=0 PF=1
New Generator.GEN833 Bus1=8430.2 kV=0.213 kW=0 PF=1
New Generator.GEN834 Bus1=8434.3 kV=0.213 kW=0 PF=1
New Generator.GEN835 Bus1=8438.1 kV=0.213 kW=0 PF=1
New Generator.GEN836 Bus1=8446.2 kV=0.213 kW=0 PF=1
New Generator.GEN837 Bus1=8454.1 kV=0.213 kW=0 PF=1
New Generator.GEN838 Bus1=8461.3 kV=0.213 kW=0 PF=1
